LAMMPS (5 Jun 2010-ICMS)
# Point dipoles in a 2d box

units		lj
atom_style	dipole
dimension	2

lattice		sq2 0.7
Lattice spacing in x,y,z = 1.69031 1.69031 1.69031
region		box block 0 20 0 20 -0.5 0.5
create_box	1 box
Created orthogonal box = (0 0 -0.845154) to (33.8062 33.8062 0.845154)
create_atoms	1 box
Created 800 atoms

replicate 2 2 1
  orthogonal box = (0 0 -0.845154) to (67.6123 67.6123 0.845154)
  3200 atoms

mass		1 1.0
shape		1 1 1 1
dipole		1 0.75
set		group all dipole/random 98934
  3200 settings made for dipole/random

velocity	all create 0.0 87287 mom no

pair_style	dipole/cut/omp 2.5
pair_coeff	* * 1.0 1.0

neighbor	0.3 bin
neigh_modify	delay 0

fix		1 all nve/sphere update dipole
fix		2 all enforce2d

timestep	0.005

compute		erot all erotate/sphere
thermo_style	custom step temp epair c_erot etotal press
thermo		500

dump		1 all custom 200 dump.dipole id type x y z mux muy muz

run		10000
Step Temp E_pair erot TotEng Press
0            0   -2.1448314            0   -2.1448314    -2.562119
Averages over the last 11 of 21 rows, steps 5000 to 10000:
Temp E_pair erot TotEng Press
0.445567 -2.7223 0.229513 -2.27687 -0.0273228
Loop time of 4.02818 on 4 procs / 2 threads for 10000 steps with 3200 atoms

Pair  time (%) = 2.27997 (56.6004)
Neigh time (%) = 0.216352 (5.37094)
Comm  time (%) = 0.578659 (14.3653)
Outpt time (%) = 0.267123 (6.63135)
Other time (%) = 0.686081 (17.032)
