LAMMPS (5 Jun 2010-ICMS)
# GayBerne ellipsoids in LJ background fluid

units	     lj
atom_style   ellipsoid
dimension    2

lattice	     sq 0.02
Lattice spacing in x,y,z = 7.07107 7.07107 7.07107
region	     box block 0 20 0 20 -0.5 0.5
create_box   2 box
Created orthogonal box = (0 0 -3.53553) to (141.421 141.421 3.53553)
create_atoms 1 box
Created 400 atoms

replicate 3 3 1
  orthogonal box = (0 0 -3.53553) to (424.264 424.264 3.53553)
  3600 atoms

set	     group all type/fraction 2 0.1 95392
  382 settings made for type/fraction
set	     group all quat/random 18238
  3600 settings made for quat/random

mass	     1 1.0
mass	     2 1.5
shape	     1 1 1 1
shape	     2 3 1 1

compute	     rot all temp/asphere
group	     spheroid type 1
3218 atoms in group spheroid
variable     dof equal count(spheroid)+2
compute_modify rot extra 3220

velocity     all create 2.4 87287 loop geom

pair_style   gayberne 1.0 3.0 1.0 4.0
pair_coeff   1 1 3.0 1.0 1 1 1 1 1 1 2.5
pair_coeff   1 2 3.0 1.0 1 1 1 0 0 0
pair_coeff   2 2 1.0 1.0 1 1 0.2 0 0 0

neighbor     0.8 bin

thermo_style custom step c_rot epair etotal press vol
thermo	     100

timestep     0.002

fix	     1 all npt/asphere temp 2.0 2.0 0.1 iso 0.0 1.0 1.0 	       mtk no pchain 0 tchain 1
fix	     2 all enforce2d

compute_modify 1_temp extra 3220

# equilibrate to shrink box around dilute system

run	     2000
Step rot E_pair TotEng Press Volume
0    2.2790501            0    2.3993333  0.047986667       180000
Averages over the last 11 of 21 rows, steps 1000 to 2000:
rot E_pair TotEng Press Volume
1.96281 -3.78162 -1.76835 0.951854 8746.47
Loop time of 3.14099 on 4 procs / 1 threads for 2000 steps with 3600 atoms

Pair  time (%) = 2.06926 (65.8795)
Neigh time (%) = 0.0390816 (1.24425)
Comm  time (%) = 0.374444 (11.9212)
Outpt time (%) = 0.00085634 (0.0272634)
Other time (%) = 0.65734 (20.9278)

# run dynamics on dense system

unfix	     1
fix	     1 all nve/asphere

run	     2000
Step rot E_pair TotEng Press Volume
2000    2.0448928   -3.4467193   -1.3504912   0.84576603    10094.487
Averages over the last 11 of 21 rows, steps 3000 to 4000:
rot E_pair TotEng Press Volume
1.99954 -3.3999 -1.39708 0.61267 10094.5
Loop time of 3.19271 on 4 procs / 1 threads for 2000 steps with 3600 atoms

Pair  time (%) = 2.63354 (82.486)
Neigh time (%) = 0.0189828 (0.594566)
Comm  time (%) = 0.24251 (7.59574)
Outpt time (%) = 0.000913978 (0.028627)
Other time (%) = 0.296766 (9.2951)
