LAMMPS (5 Jun 2010-ICMS)
# Big colloid particles and small LJ particles

units		lj
atom_style	atomic
dimension	2

lattice		sq 0.01
Lattice spacing in x,y,z = 10 10 10
region		box block 0 30 0 30 -0.5 0.5
create_box	2 box
Created orthogonal box = (0 0 -5) to (300 300 5)
create_atoms	1 box
Created 900 atoms

set		group all type/fraction 2 0.96 23984
  861 settings made for type/fraction

mass		1 9
mass		2 1

velocity	all create 1.44 87287 loop geom

# multi neighbor and comm for efficiency

neighbor	1 multi
neigh_modify	delay 0
communicate	multi

# colloid potential

pair_style	colloid/omp 12.5
pair_coeff	1 1  1.0 1.0 5.0 5.0 12.5
pair_coeff	1 2  5.0 1.0 5.0 0.0 7.0
pair_coeff	2 2 10.0 1.0 0.0 0.0 2.5

fix		1 all npt temp 2.0 2.0 1.0 iso 0.0 1.0 10.0 drag 1.0 	        mtk no pchain 0 tchain 1
fix		2 all enforce2d

thermo_style	custom step temp epair etotal press vol
thermo		1000

timestep	0.005

run		50000
Step Temp E_pair TotEng Press Volume
0         1.44 -4.4273068e-06    1.4383956  0.014383846        90000
Averages over the last 26 of 51 rows, steps 25000 to 50000:
Temp E_pair TotEng Press Volume
2.01361 0.0129946 2.02437 0.728793 4573.27
Loop time of 4.36407 on 4 procs / 2 threads for 50000 steps with 900 atoms

Pair  time (%) = 1.57254 (36.0337)
Neigh time (%) = 0.37452 (8.5819)
Comm  time (%) = 1.01431 (23.2423)
Outpt time (%) = 0.00106686 (0.0244465)
Other time (%) = 1.40164 (32.1176)
