LAMMPS (21 Jul 2010-ICMS)
# water

atom_style     full
newton on on
units   metal
dimension 3
boundary p p p
read_data  data.tip4p
  orthogonal box = (-15.6967 -15.8901 -15.7781) to (15.1861 14.9927 15.1046)
  3000 atoms
  2000 bonds
  1000 angles

# Define interaction parameters
pair_style lj/cut/coul/long/tip4p/omp 2 1 1 1 0.1250 12.000
bond_style harmonic
angle_style harmonic

pair_coeff * * 0.0 0.0  12.0
pair_coeff 2 2 0.00705684 3.16435 12.0

kspace_style pppm/tip4p 1.0e-4
kspace_modify order 4

bond_style harmonic
angle_style harmonic
bond_coeff     1     19.51  0.9572
angle_coeff    1     2.39   104.52
fix      1 all shake 0.0001 20 0  b 1 a 1

# initialize
thermo 50

fix 	NPT all nvt temp 298.3 298.3 0.01 drag 0.5
run 	1000
PPPM initialization ...
  G vector = 0.225047
  grid = 18 18 18
  stencil order = 4
  RMS precision = 6.88864e-05
  brick FFT buffer size/proc = 2744 972 1764
Step Temp E_pair E_mol TotEng Press
0            0    -471.2608            0    -471.2608    -886.5957
Averages over the last 11 of 21 rows, steps 500 to 1000:
Temp E_pair E_mol TotEng Press
297.059 -480.443 0 -403.685 330.226
Loop time of 13.3858 on 16 procs (8 MPI x 2 OpenMP) for 1000 steps with 3000 atoms

Pair  time (%) = 9.52882 (71.1862)
Bond  time (%) = 0.000897616 (0.00670575)
Kspce time (%) = 2.18095 (16.293)
Neigh time (%) = 0.584648 (4.36768)
Comm  time (%) = 0.577292 (4.31273)
Outpt time (%) = 0.00103819 (0.00775595)
Other time (%) = 0.512123 (3.82588)

FFT Gflps 3d (1d only) = 3.12541 6.01484
