LAMMPS (29 May 2010-ICMS)
# Parallel replica dynamics model for a single vacancy in bulk Si
# events occur when a neighboring atom diffuses to the vacant site
# run this on multiple partitions as
#   mpirun -np 4 lmp_g++ -partition 4x1 -in in.prd

units           metal

atom_style      atomic
atom_modify     map array
boundary        p p p
atom_modify	sort 0 0.0

# temperature

variable t equal 1800.0

# coordination number cutoff

variable r equal 2.835

# minimization parameters

variable etol equal 1.0e-5
variable ftol equal 1.0e-5
variable maxiter equal 100
variable maxeval equal 100
variable dmax equal 1.0e-1

# diamond unit cell

variable a equal 5.431
lattice         custom $a                               a1 1.0 0.0 0.0                          a2 0.0 1.0 0.0                          a3 0.0 0.0 1.0                          basis 0.0 0.0 0.0                       basis 0.0 0.5 0.5                       basis 0.5 0.0 0.5                       basis 0.5 0.5 0.0                       basis 0.25 0.25 0.25                    basis 0.25 0.75 0.75                    basis 0.75 0.25 0.75                    basis 0.75 0.75 0.25
lattice         custom 5.431                               a1 1.0 0.0 0.0                          a2 0.0 1.0 0.0                          a3 0.0 0.0 1.0                          basis 0.0 0.0 0.0                       basis 0.0 0.5 0.5                       basis 0.5 0.0 0.5                       basis 0.5 0.5 0.0                       basis 0.25 0.25 0.25                    basis 0.25 0.75 0.75                    basis 0.75 0.25 0.75                    basis 0.75 0.75 0.25
Lattice spacing in x,y,z = 5.431 5.431 5.431

region          myreg block     0 4                                 0 4                                 0 4
create_box      1 myreg
Created orthogonal box = (0 0 0) to (21.724 21.724 21.724)
create_atoms    1 region myreg
Created 512 atoms

mass            1       28.06

group Si type 1
512 atoms in group Si

velocity all create $t 5287287 mom yes rot yes dist gaussian
velocity all create 1800 5287287 mom yes rot yes dist gaussian

# make a vacancy

group del id 300
1 atoms in group del
delete_atoms group del
Deleted 1 atoms, new total = 511

replicate 2 2 2
  orthogonal box = (0 0 0) to (43.448 43.448 43.448)
  4088 atoms

pair_style      sw/omp
pair_coeff * * Si.sw Si

thermo          100

fix             1 all nvt temp $t $t 0.1 tchain 1
fix             1 all nvt temp 1800 $t 0.1 tchain 1
fix             1 all nvt temp 1800 1800 0.1 tchain 1

timestep        1.0e-3
neighbor        1.0 bin
neigh_modify    every 1 delay 10 check yes

# equilibrate

run             1000
Step Temp E_pair E_mol TotEng Press
0    1799.4396   -17693.328            0   -16742.709     12351.85
Averages over the last 6 of 11 rows, steps 500 to 1000:
Temp E_pair E_mol TotEng Press
1674.34 -16637.8 0 -15753.3 9773.08
Loop time of 3.51923 on 8 procs / 1 threads for 1000 steps with 4088 atoms

Pair  time (%) = 3.3049 (93.9098)
Neigh time (%) = 0.0494682 (1.40566)
Comm  time (%) = 0.135923 (3.86229)
Outpt time (%) = 0.000313759 (0.00891556)
Other time (%) = 0.028624 (0.813359)
