LAMMPS (5 Jun 2010-ICMS)
# RESquared ellipsoids in LJ background fluid

units	     lj
atom_style   ellipsoid
dimension    2

lattice	     sq 0.02
Lattice spacing in x,y,z = 7.07107 7.07107 7.07107
region	     box block 0 20 0 20 -0.5 0.5
create_box   2 box
Created orthogonal box = (0 0 -3.53553) to (141.421 141.421 3.53553)
create_atoms 1 box
Created 400 atoms

replicate 3 3 1
  orthogonal box = (0 0 -3.53553) to (424.264 424.264 3.53553)
  3600 atoms

set	     group all type/fraction 2 0.1 95392
  382 settings made for type/fraction
set	     group all quat/random 18238
  3600 settings made for quat/random

mass	     1 1.0
mass	     2 1.5
shape	     1 1 1 1
shape	     2 3 1 1

compute	     rot all temp/asphere
group	     spheroid type 1
3218 atoms in group spheroid
variable     dof equal count(spheroid)+2
compute_modify rot extra 3220

velocity     all create 2.4 87287 loop geom

pair_style   resquared 4.0
pair_coeff   1 1 3.0 1 1 1 1 1 1 1 2.5
pair_coeff   1 2 3.0 1 1 1 1 0 0 0
pair_coeff   2 2 1.0 1 1 1 0.2 0 0 0

neighbor     0.8 bin

thermo_style custom step c_rot epair etotal press vol
thermo	     100

timestep     0.002

fix	     1 all npt/asphere temp 2.0 2.0 0.1 iso 0.0 1.0 1.0 	       mtk no pchain 0 tchain 1
fix	     2 all enforce2d

compute_modify 1_temp extra 3220

# equilibrate to shrink box around dilute system

run	     2000
Step rot E_pair TotEng Press Volume
0    2.2790501            0    2.3993333  0.047986667       180000
Averages over the last 11 of 21 rows, steps 1000 to 2000:
rot E_pair TotEng Press Volume
1.99878 0.119861 2.15788 0.82771 22137.7
Loop time of 4.99409 on 4 procs / 1 threads for 2000 steps with 3600 atoms

Pair  time (%) = 4.01195 (80.3338)
Neigh time (%) = 0.0353667 (0.708171)
Comm  time (%) = 0.287946 (5.76573)
Outpt time (%) = 0.000863671 (0.0172939)
Other time (%) = 0.657971 (13.175)

# run dynamics on dense system

unfix	     1
fix	     1 all nve/asphere

run	     2000
Step rot E_pair TotEng Press Volume
2000    1.9616253   0.20914316    2.2109297    1.5047014    14943.206
Averages over the last 11 of 21 rows, steps 3000 to 4000:
rot E_pair TotEng Press Volume
1.9947 0.174412 2.17017 1.33163 14943.2
Loop time of 8.39471 on 4 procs / 1 threads for 2000 steps with 3600 atoms

Pair  time (%) = 7.67823 (91.4651)
Neigh time (%) = 0.0155922 (0.185739)
Comm  time (%) = 0.392105 (4.67085)
Outpt time (%) = 0.000941575 (0.0112163)
Other time (%) = 0.307838 (3.66704)
