LAMMPS (5 Dec 2010-ICMS)
# surface sputtering demo

# dimension variables
# box length in x and y
variable len  index  20.0
# height of layer
variable hgt  index  8.0
# delta between insert area and box
variable len0  index  0.1
# full length minus delta
variable len1  equal 20.0-0.1
# half length
variable len2  equal 20.0*0.5

units		lj
atom_style	atomic
boundary        p p f

lattice		fcc 0.85
Lattice spacing in x,y,z = 1.67577 1.67577 1.67577
region		box block 0.0 20.0 0.0 20.0 -1.0 40.0 units lattice

# particle density in z-direction is inhomogeneous:
# only do domain decomposition in x- and y-direction
processors      * * 1

# two atom types: surface and sputter atoms
create_box	2 box
Created orthogonal box = (0 0 -1.67577) to (33.5153 33.5153 67.0307)

region          layer block 0.0 20.0 0.0 20.0 0.0 8.0
create_atoms	1 region layer
Created 13600 atoms
mass		1 1.0
mass            2 3.0

region          fixed block INF INF INF INF 0.0 0.1
group           fixed region fixed
800 atoms in group fixed
group           mobile subtract all fixed
12800 atoms in group mobile

pair_style	lj/cut/opt 2.5
pair_coeff	1 1 1.0 1.0
pair_coeff	2 2 0.5 1.2

neighbor	0.3 bin
neigh_modify	every 2 delay 6 check yes

minimize   1.0e-5 1.0e-8  1000 10000
Step Temp E_pair E_mol TotEng Press
0            0   -6.5259752            0   -6.5259752   -1.2281195
Loop time of 3.30338 on 2 procs for 36 steps with 13600 atoms

Minimization stats:
  Stopping criterion = energy tolerance
  Energy initial, next-to-last, final =
  Force two-norm initial, final = 303.542 14.6837
  Force max component initial, final = 7.48566 0.188904
  Final line search alpha, max atom move = 0.00302967 0.000572317
  Iterations, force evaluations = 36 111

Pair  time (%) = 2.75307 (83.3409)
Neigh time (%) = 0.237482 (7.18905)
Comm  time (%) = 0.243272 (7.36433)
Outpt time (%) = 0 (0)
Other time (%) = 0.0695615 (2.10576)

reset_timestep 0

velocity	mobile create 0.4 87287
# use the temperature of the mobile layer atoms as reference
compute         mtemp mobile temp
fix		1 mobile nve
fix             2 mobile langevin 0.2 0.2 5.0 982434
fix_modify      2 temp mtemp

thermo		100
thermo_style custom step atoms temp etotal
thermo_modify   temp mtemp

dump		id all xyz 200 sputter.xyz

# minimal equilibration
run		1000
Step Atoms Temp TotEng
0    13600          0.4   -6.7765628
Averages over the last 6 of 11 rows, steps 500 to 1000:
Atoms Temp TotEng
13600 0.202167 -6.77981
Loop time of 18.4513 on 2 procs for 1000 steps with 13600 atoms

Pair  time (%) = 13.2945 (72.052)
Neigh time (%) = 2.13272 (11.5586)
Comm  time (%) = 1.1551 (6.26028)
Outpt time (%) = 0.273862 (1.48425)
Other time (%) = 1.59509 (8.64487)

# define region for inserting particles
region sphere  sphere 10 10 42.0 10  units lattice
region insert  intersect 2 box sphere

# define group of inserted particles
group           insert region insert
0 atoms in group insert
# deposite particles regularly into insert volume
fix      insert insert deposit 50 2 200 12345 region insert vz -8.0 -9.0                 target 10 10 8.0 units lattice
neigh_modify	every 1 delay 0 check yes

# time integrate inserted particles
fix    4 insert nve

# remove thermostat on layer atoms
unfix  2

variable nlayer  equal count(mobile)+count(fixed)
variable ninsert equal count(insert)

thermo_style custom step atoms v_nlayer v_ninsert temp etotal
thermo_modify   temp mtemp

# handling of atoms the get bounced back from surface
# or sputtered off the surface.
thermo_modify  lost ignore

run 15000
Step Atoms nlayer ninsert Temp TotEng
1000    13600        13600            0   0.20832321   -6.7844653
Averages over the last 76 of 151 rows, steps 8500 to 16000:
Atoms nlayer ninsert Temp TotEng
13642.7 13594.8 47.9474 0.495096 -5.72628
Loop time of 370.179 on 2 procs for 15000 steps with 13637 atoms

Pair  time (%) = 189.401 (51.1648)
Neigh time (%) = 145.628 (39.3399)
Comm  time (%) = 21.6744 (5.85511)
Outpt time (%) = 4.05343 (1.09499)
Other time (%) = 9.42176 (2.54519)
